*Heading
** Job name: Job-verifystapmat-no2 Model name: Model-verifystapmat
** Generated by: Abaqus/CAE 6.14-1
*Preprint, echo=NO, model=NO, history=NO, contact=NO
**
** PARTS
**
*Part, name=Part-2
*End Part
**  
**
** ASSEMBLY
**
*Assembly, name=Assembly
**  
*Instance, name=Part-2-1, part=Part-2
*Node
      1,          45.,          15.
      2,          45.,          25.
      3,          20.,          25.
      4,          20.,         -25.
      5,          45.,         -25.
      6,          45.,         -15.
      7,          30.,         -15.
      8,          30.,          15.
      9,          45.,          20.
     10,          40.,          25.
     11,          35.,          25.
     12,          30.,          25.
     13,          25.,          25.
     14,          20.,          20.
     15,          20.,          15.
     16,          20.,          10.
     17,          20.,           5.
     18,          20.,           0.
     19,          20.,          -5.
     20,          20.,         -10.
** ... 113 like lines cut
*Element, type=CAX8R
 1,  49,  36,   1,   9,  52,  53,  54,  55
 2,  37,  11,  12,  40,  56,  57,  58,  59
 3,  14,  38,  13,   3,  60,  61,  62,  63
 4,  41,  15,  16,  42,  64,  65,  66,  67
 5,  24,  47,  51,  23,  68,  69,  70,  71
 6,  39,  25,  26,  50,  72,  73,  74,  75
 7,   2,  10,  49,   9,  76,  77,  55,  78
 8,  38,  40,  12,  13,  79,  58,  80,  61
 9,  15,  41,  38,  14,  64,  81,  60,  82
10,  32,  33,  48,  43,  83,  84,  85,  86
11,  43,  44,  31,  32,  87,  88,  89,  86
12,  19,  44,  43,  18,  90,  87,  91,  92
13,  44,  45,  30,  31,  93,  94,  95,  88
14,  20,  45,  44,  19,  96,  93,  90,  97
15,  21,  46,  45,  20,  98,  99,  96, 100
16,   4,  23,  51,  22, 101,  70, 102, 103
17,  25,  39,  47,  24,  72, 104,  68, 105
18,   5,  27,  50,  26, 106, 107,  74, 108
19,   6,  28,  50,  27, 109, 110, 107, 111
20,  29,   7,  47,  39, 112, 113, 104, 114
** ... 12 like lines cut
*Nset, nset=Set-1, generate
   1,  133,    1
*Elset, elset=Set-1, generate
  1,  32,   1
** Section: Section-1
*Solid Section, elset=Set-1, material=Material-1
,
*End Instance
**  
*Nset, nset=Set-6, instance=Part-2-1
   4,   5,  23,  24,  25,  26,  71,  73, 101, 105, 108
*Elset, elset=Set-6, instance=Part-2-1
  5,  6, 16, 17, 18
*Nset, nset=Set-8, instance=Part-2-1
   4,   5,  23,  24,  25,  26,  71,  73, 101, 105, 108
*Elset, elset=Set-8, instance=Part-2-1
  5,  6, 16, 17, 18
*Elset, elset=_Surf-9_S1, internal, instance=Part-2-1
 10, 32
*Elset, elset=_Surf-9_S3, internal, instance=Part-2-1
 11, 13, 22, 23
*Surface, type=ELEMENT, name=Surf-9
_Surf-9_S1, S1
_Surf-9_S3, S3
*End Assembly
*Amplitude, name=Amp-2, definition=PERIODIC
1,              1.,              0.,              1.
             0.,              0.
*Amplitude, name=Amp-3, time=TOTAL TIME, definition=PERIODIC
1,         5.20346,              1.,              0.
             0.,              1.
*Amplitude, name=Amp-4, definition=PERIODIC
1,              1.,              0.,              0.
             0.,              1.
*Amplitude, name=Amp-constantforce, definition=PERIODIC
1,              0.,              0.,              1.
             0.,              0.
*Amplitude, name=Amp-sin(t), time=TOTAL TIME, definition=PERIODIC
1,              1.,              0.,              0.
             0.,              1.
*Amplitude, name=Amp-w2, definition=PERIODIC
1,              6.,              0.,              0.
             0.,              1.
*Amplitude, name=Amp-w3, definition=PERIODIC
1,           7.819,              0.,              0.
             0.,              1.
** 
** MATERIALS
** 
*Material, name=Material-1
*Density
 7.9,
*Elastic
100000., 0.2
** 
** BOUNDARY CONDITIONS
** 
** Name: BC-1 Type: Symmetry/Antisymmetry/Encastre
*Boundary
Set-8, ENCASTRE
** ----------------------------------------------------------------
** 
** STEP: Step-1
** 
*Step, name=Step-1, nlgeom=NO
*Static
1., 1., 1e-05, 1.
** 
** LOADS
** 
** Name: Load-2   Type: Surface traction
*Dsload
Surf-9, TRSHR, 1., 0., 1., 0.
** 
** OUTPUT REQUESTS
** 
*Restart, write, frequency=0
** 
** FIELD OUTPUT: F-Output-1
** 
*Output, field, variable=PRESELECT
** 
** HISTORY OUTPUT: H-Output-1
** 
*Output, history, variable=PRESELECT
*End Step
